Version 4
SHEET 1 880 680
WIRE -64 -208 -64 -240
WIRE 16 -208 -64 -208
WIRE 112 -208 112 -240
WIRE 192 -208 112 -208
WIRE -96 -176 -96 -240
WIRE -64 -176 -64 -208
WIRE 80 -176 80 -240
WIRE 112 -176 112 -208
WIRE 96 64 96 -48
WIRE 272 64 96 64
WIRE -80 96 -80 -48
WIRE 272 96 -80 96
WIRE 464 96 400 96
WIRE 256 128 176 128
WIRE 272 128 256 128
WIRE 192 224 192 -208
WIRE 272 224 192 224
WIRE -80 256 -80 96
WIRE 272 256 -80 256
WIRE 464 256 400 256
WIRE 256 288 256 128
WIRE 272 288 256 288
WIRE 96 384 96 64
WIRE 272 384 96 384
WIRE 16 416 16 -208
WIRE 272 416 16 416
WIRE 464 416 400 416
WIRE 256 448 256 288
WIRE 272 448 256 448
WIRE 192 544 192 224
WIRE 272 544 192 544
WIRE 16 576 16 416
WIRE 272 576 16 576
WIRE 464 576 400 576
WIRE 256 608 256 448
WIRE 272 608 256 608
FLAG 112 -240 I0
IOPIN 112 -240 In
FLAG 80 -240 VDD
IOPIN 80 -240 In
FLAG -64 -240 I1
IOPIN -64 -240 In
FLAG -96 -240 VDD
IOPIN -96 -240 In
FLAG 176 128 VDD
IOPIN 176 128 In
FLAG 464 96 Y0
IOPIN 464 96 Out
FLAG 464 256 Y1
IOPIN 464 256 Out
FLAG 464 416 Y2
IOPIN 464 416 Out
FLAG 464 576 Y3
IOPIN 464 576 Out
SYMBOL AndCMOS 336 96 R0
SYMATTR InstName X1
SYMBOL AndCMOS 336 256 R0
SYMATTR InstName X2
SYMBOL AndCMOS 336 416 R0
SYMATTR InstName X3
SYMBOL AndCMOS 336 576 R0
SYMATTR InstName X4
SYMBOL InvCMOS 96 -112 R90
SYMATTR InstName X5
SYMBOL InvCMOS -80 -112 R90
SYMATTR InstName X6
