Version 4
SHEET 1 1024 884
WIRE 128 32 48 32
WIRE 128 80 48 80
WIRE 432 96 336 96
WIRE 128 128 48 128
WIRE 432 160 336 160
WIRE 128 176 48 176
WIRE 176 304 176 240
WIRE 224 304 224 240
WIRE 272 304 272 240
FLAG -416 432 0
FLAG -416 224 0
FLAG -416 0 0
FLAG -416 -160 0
FLAG 48 32 A
IOPIN 48 32 In
FLAG 48 80 B
IOPIN 48 80 In
FLAG 48 128 CIN/BIN
IOPIN 48 128 In
FLAG 48 176 VDD
IOPIN 48 176 In
FLAG 176 304 S2
IOPIN 176 304 In
FLAG 224 304 S1
IOPIN 224 304 In
FLAG 272 304 S0
IOPIN 272 304 In
FLAG 432 96 OUT
IOPIN 432 96 Out
FLAG 432 160 COUT
IOPIN 432 160 Out
FLAG 656 288 S0
IOPIN 656 288 In
FLAG 656 112 S1
IOPIN 656 112 In
FLAG 656 -48 S2
IOPIN 656 -48 In
FLAG -416 352 VDD
IOPIN -416 352 In
FLAG -416 144 CIN/BIN
IOPIN -416 144 In
FLAG -416 -80 B
IOPIN -416 -80 In
FLAG -416 -240 A
IOPIN -416 -240 In
FLAG 656 368 0
FLAG 656 192 0
FLAG 656 32 0
SYMBOL OneBitALU_CMOS 224 128 R0
SYMATTR InstName X1
SYMBOL voltage -416 -256 R0
WINDOW 123 0 0 Left 0
WINDOW 39 0 0 Left 0
SYMATTR InstName V1
SYMATTR Value 1
SYMBOL voltage -416 -96 R0
WINDOW 123 0 0 Left 0
WINDOW 39 0 0 Left 0
SYMATTR InstName V2
SYMATTR Value 1
SYMBOL voltage -416 128 R0
WINDOW 123 0 0 Left 0
WINDOW 39 0 0 Left 0
SYMATTR InstName V3
SYMATTR Value 1
SYMBOL voltage -416 336 R0
WINDOW 123 0 0 Left 0
WINDOW 39 0 0 Left 0
SYMATTR InstName V4
SYMATTR Value 1
SYMBOL voltage 656 -64 R0
WINDOW 123 0 0 Left 0
WINDOW 39 0 0 Left 0
SYMATTR InstName V5
SYMATTR Value PULSE(0 1 0 5n 5n 20m 40m)
SYMBOL voltage 656 96 R0
WINDOW 123 0 0 Left 0
WINDOW 39 0 0 Left 0
SYMATTR InstName V6
SYMATTR Value PULSE(0 1 0 5n 5n 10m 20m)
SYMBOL voltage 656 272 R0
WINDOW 123 0 0 Left 0
WINDOW 39 0 0 Left 0
SYMATTR InstName V7
SYMATTR Value PULSE(0 1 0 5n 5n 5m 10m)
TEXT -480 456 Left 2 !.tran 40m
TEXT -176 568 Left 2 !.inc C:\\Users\\pdivy\\OneDrive\\Desktop\\PTM 65nm PMOS.txt
TEXT -176 608 Left 2 !.inc C:\\Users\\pdivy\\OneDrive\\Desktop\\PTM 65nm NMOS.txt
