Version 4
SHEET 1 892 680
WIRE 192 16 112 16
WIRE 112 48 112 16
WIRE 192 48 192 16
WIRE 224 96 224 0
WIRE 224 96 192 96
WIRE 144 128 128 128
WIRE 128 176 128 128
WIRE 128 176 80 176
WIRE 192 176 192 144
WIRE 272 176 192 176
WIRE 288 176 272 176
WIRE 192 192 192 176
WIRE 224 240 192 240
WIRE 128 272 128 176
WIRE 144 272 128 272
WIRE 272 272 272 176
WIRE 368 272 272 272
WIRE 560 288 496 288
WIRE 224 304 224 240
WIRE 368 304 336 304
WIRE 768 304 688 304
WIRE 560 320 512 320
WIRE 192 352 192 288
WIRE 336 352 336 304
WIRE 512 352 512 320
WIRE 512 352 336 352
WIRE 336 384 336 352
FLAG 192 352 B
IOPIN 192 352 In
FLAG 80 176 A
IOPIN 80 176 In
FLAG 288 176 OUT
IOPIN 288 176 Out
FLAG 224 0 VDD
IOPIN 224 0 In
FLAG 112 48 0
FLAG 224 304 0
FLAG -368 304 0
FLAG -368 160 0
FLAG -368 16 0
FLAG -368 -64 VDD
IOPIN -368 -64 In
FLAG -368 80 A
IOPIN -368 80 In
FLAG -368 224 B
IOPIN -368 224 In
FLAG 336 384 VDD
IOPIN 336 384 In
FLAG 112 560 OUT2
IOPIN 112 560 Out
FLAG 768 304 OUT2
IOPIN 768 304 Out
SYMBOL pmos4 144 48 R0
SYMATTR InstName M1
SYMBOL nmos4 144 192 R0
SYMATTR InstName M2
SYMBOL voltage -368 -80 R0
WINDOW 123 0 0 Left 0
WINDOW 39 0 0 Left 0
SYMATTR InstName V1
SYMATTR Value 1
SYMBOL voltage -368 64 R0
WINDOW 123 0 0 Left 0
WINDOW 39 0 0 Left 0
SYMATTR InstName V2
SYMATTR Value PULSE(0 1 0 5n 5n 5m 10m)
SYMBOL voltage -368 208 R0
WINDOW 123 0 0 Left 0
WINDOW 39 0 0 Left 0
SYMATTR InstName V3
SYMATTR Value PULSE(0 1 0 5n 5n 10m 20m)
SYMBOL InvCMOS 432 288 R0
SYMATTR InstName X1
SYMBOL InvCMOS 624 304 R0
SYMATTR InstName X2
TEXT -432 432 Left 2 !.tran 20m
TEXT -544 544 Left 2 !.inc C:\\Users\\pdivy\\OneDrive\\Desktop\\PTM 65nm PMOS.txt
TEXT -568 624 Left 2 !.inc C:\\Users\\pdivy\\OneDrive\\Desktop\\PTM 65nm NMOS.txt
