Version 4
SHEET 1 880 680
WIRE 320 48 272 48
WIRE 160 64 112 64
WIRE 320 80 272 80
WIRE 160 96 112 96
WIRE -112 112 -176 112
WIRE 320 112 272 112
WIRE 160 128 16 128
WIRE -112 144 -176 144
WIRE 320 144 272 144
WIRE 320 240 272 240
WIRE 160 256 112 256
WIRE 320 272 272 272
WIRE 160 288 112 288
WIRE 320 304 272 304
WIRE 160 320 112 320
WIRE 320 336 272 336
FLAG 320 48 Y0
IOPIN 320 48 Out
FLAG 320 80 Y1
IOPIN 320 80 Out
FLAG 320 112 Y2
IOPIN 320 112 Out
FLAG 320 144 Y3
IOPIN 320 144 Out
FLAG 320 240 Y4
IOPIN 320 240 Out
FLAG 320 272 Y5
IOPIN 320 272 Out
FLAG 320 304 Y6
IOPIN 320 304 Out
FLAG 320 336 Y7
IOPIN 320 336 Out
FLAG 112 64 I0
IOPIN 112 64 In
FLAG 112 96 I1
IOPIN 112 96 In
FLAG 112 256 I0
IOPIN 112 256 In
FLAG 112 288 I1
IOPIN 112 288 In
FLAG -176 112 I2
IOPIN -176 112 In
FLAG -176 144 VDD
IOPIN -176 144 In
FLAG 112 320 I2
IOPIN 112 320 In
SYMBOL Dec2to4CMOS 208 96 R0
SYMATTR InstName X1
SYMBOL Dec2to4CMOS 208 288 R0
SYMATTR InstName X2
SYMBOL InvCMOS -48 128 R0
SYMATTR InstName X3
