Version 4
SHEET 1 1844 1388
WIRE 128 -48 128 -144
WIRE 160 -48 128 -48
WIRE 672 -32 288 -32
WIRE 160 -16 -80 -16
WIRE 128 96 128 -48
WIRE 160 96 128 96
WIRE 96 128 96 -144
WIRE 160 128 96 128
WIRE 640 128 320 128
WIRE 64 160 64 -144
WIRE 160 160 64 160
WIRE 928 160 320 160
WIRE 160 192 -48 192
WIRE 928 192 720 192
WIRE 1248 192 1056 192
WIRE 928 224 896 224
WIRE 128 320 128 96
WIRE 160 320 128 320
WIRE 96 352 96 128
WIRE 160 352 96 352
WIRE 608 352 288 352
WIRE 160 384 -16 384
WIRE 992 416 992 272
WIRE 1088 416 992 416
WIRE 128 512 128 320
WIRE 160 512 128 512
WIRE 672 512 672 -32
WIRE 928 512 672 512
WIRE -80 544 -80 -16
WIRE -80 544 -400 544
WIRE 96 544 96 352
WIRE 160 544 96 544
WIRE 576 544 288 544
WIRE 640 544 640 128
WIRE 928 544 640 544
WIRE -48 576 -48 192
WIRE -48 576 -400 576
WIRE 160 576 16 576
WIRE 608 576 608 352
WIRE 928 576 608 576
WIRE -512 608 -592 608
WIRE -16 608 -16 384
WIRE -16 608 -400 608
WIRE 576 608 576 544
WIRE 928 608 576 608
WIRE -512 640 -592 640
WIRE 16 640 16 576
WIRE 16 640 -400 640
WIRE 928 640 576 640
WIRE 1248 656 1056 656
WIRE -512 672 -592 672
WIRE 16 672 -400 672
WIRE 928 672 608 672
WIRE -512 704 -592 704
WIRE -16 704 -400 704
WIRE 128 704 128 512
WIRE 160 704 128 704
WIRE 928 704 640 704
WIRE -48 736 -400 736
WIRE 96 736 96 544
WIRE 160 736 96 736
WIRE 576 736 576 640
WIRE 576 736 304 736
WIRE 928 736 672 736
WIRE -80 768 -400 768
WIRE 64 768 64 160
WIRE 160 768 64 768
WIRE 720 768 720 192
WIRE 720 768 304 768
WIRE 896 784 896 224
WIRE 928 784 896 784
WIRE 16 800 16 672
WIRE 160 800 16 800
WIRE 960 880 960 848
WIRE 1088 880 1088 416
WIRE 1088 880 960 880
WIRE 128 928 128 704
WIRE 160 928 128 928
WIRE 96 960 96 736
WIRE 160 960 96 960
WIRE 608 960 608 672
WIRE 608 960 288 960
WIRE -16 992 -16 704
WIRE 160 992 -16 992
WIRE 896 1040 896 784
WIRE 960 1056 960 880
WIRE 992 1056 992 848
WIRE 1024 1056 1024 848
WIRE 128 1120 128 928
WIRE 160 1120 128 1120
WIRE 96 1152 96 960
WIRE 160 1152 96 1152
WIRE 640 1152 640 704
WIRE 640 1152 288 1152
WIRE -48 1184 -48 736
WIRE 160 1184 -48 1184
WIRE 128 1328 128 1120
WIRE 160 1328 128 1328
WIRE 672 1344 672 736
WIRE 672 1344 288 1344
WIRE -80 1360 -80 768
WIRE 160 1360 -80 1360
FLAG 896 1040 VDD
IOPIN 896 1040 In
FLAG 960 1056 S2
IOPIN 960 1056 In
FLAG 992 1056 S1
IOPIN 992 1056 In
FLAG 1024 1056 S0
IOPIN 1024 1056 In
FLAG 1248 192 COUT
IOPIN 1248 192 Out
FLAG 1248 656 OUT
IOPIN 1248 656 Out
FLAG -592 704 VDD
IOPIN -592 704 In
FLAG -592 672 S2
IOPIN -592 672 In
FLAG -592 640 S1
IOPIN -592 640 In
FLAG -592 608 S0
IOPIN -592 608 In
FLAG 128 -144 A
IOPIN 128 -144 In
FLAG 96 -144 B
IOPIN 96 -144 In
FLAG 64 -144 CIN/BIN
IOPIN 64 -144 In
SYMBOL ClearCMOS 224 -32 R0
SYMATTR InstName X1
SYMBOL FullAdderCMOS 240 144 R0
SYMATTR InstName X2
SYMBOL AndCMOS 224 352 R0
SYMATTR InstName X3
SYMBOL OrCMOS 224 544 R0
SYMATTR InstName X4
SYMBOL FullSubCMOS 224 752 R0
SYMATTR InstName X5
SYMBOL XorCMOS 224 960 R0
SYMATTR InstName X6
SYMBOL XnorCMOS 224 1152 R0
SYMATTR InstName X7
SYMBOL InvCMOS 224 1344 R0
SYMATTR InstName X8
SYMBOL Mux8to1CMOS 992 656 R0
SYMATTR InstName X9
SYMBOL Mux2to1CMOS 992 208 R0
SYMATTR InstName X10
SYMBOL Dec3to8CMOS -464 656 R0
SYMATTR InstName X11
