Version 4
SHEET 1 880 680
WIRE 368 -320 304 -320
WIRE 176 -304 64 -304
WIRE 192 -304 176 -304
WIRE 368 -288 304 -288
WIRE 160 -272 64 -272
WIRE 192 -272 160 -272
WIRE -144 -256 -192 -256
WIRE -128 -256 -144 -256
WIRE 368 -256 304 -256
WIRE 192 -240 0 -240
WIRE -128 -224 -192 -224
WIRE 368 -224 304 -224
WIRE 368 -64 304 -64
WIRE 176 -48 176 -304
WIRE 192 -48 176 -48
WIRE 368 -32 304 -32
WIRE 160 -16 160 -272
WIRE 192 -16 160 -16
WIRE 368 0 304 0
WIRE -144 16 -144 -256
WIRE 192 16 -144 16
WIRE 368 32 304 32
FLAG 64 -304 I0
IOPIN 64 -304 In
FLAG 64 -272 I1
IOPIN 64 -272 In
FLAG -192 -256 I2
IOPIN -192 -256 In
FLAG -192 -224 VDD
IOPIN -192 -224 In
FLAG 368 -320 D0
IOPIN 368 -320 Out
FLAG 368 -288 D1
IOPIN 368 -288 Out
FLAG 368 -256 D2
IOPIN 368 -256 Out
FLAG 368 -224 D3
IOPIN 368 -224 Out
FLAG 368 -64 D4
IOPIN 368 -64 Out
FLAG 368 -32 D5
IOPIN 368 -32 Out
FLAG 368 0 D6
IOPIN 368 0 Out
FLAG 368 32 D7
IOPIN 368 32 Out
SYMBOL dec2to4_V2 240 -272 R0
SYMATTR InstName X1
SYMBOL dec2to4_V2 240 -16 R0
SYMATTR InstName X2
SYMBOL INVgdi -64 -240 R0
SYMATTR InstName X3
