Version 4
SHEET 1 880 680
WIRE 496 48 240 48
WIRE 240 96 240 48
WIRE 496 128 496 48
WIRE 336 144 240 144
WIRE 192 176 112 176
WIRE 336 176 336 144
WIRE 112 224 112 176
WIRE 112 336 112 304
WIRE 240 336 240 192
WIRE 240 336 112 336
WIRE 496 336 496 208
WIRE 496 336 240 336
WIRE 240 368 240 336
FLAG 240 368 0
FLAG 336 256 0
SYMBOL pmos4 192 96 R0
SYMATTR InstName M1
SYMBOL voltage 336 160 R0
WINDOW 123 0 0 Left 0
WINDOW 39 0 0 Left 0
SYMATTR InstName V3
SYMATTR Value 1
SYMBOL voltage 496 224 R180
WINDOW 0 24 96 Left 2
WINDOW 3 24 16 Left 2
WINDOW 123 0 0 Left 0
WINDOW 39 0 0 Left 0
SYMATTR InstName V2
SYMATTR Value 1
SYMBOL voltage 112 320 R180
WINDOW 0 24 96 Left 2
WINDOW 3 24 16 Left 2
WINDOW 123 0 0 Left 0
WINDOW 39 0 0 Left 0
SYMATTR InstName V1
SYMATTR Value 1
TEXT -104 416 Left 2 !.inc C:\\Users\\pdivy\\Desktop\\PTM 65nm PMOS.txt
TEXT -112 456 Left 2 !.inc C:\\Users\\pdivy\\Desktop\\PTM 65nm NMOS.txt
TEXT -112 480 Left 2 !.dc V2 0 1 0.01 V1 0 1 0.1
TEXT -120 528 Left 2 ;.dc V1 0 1 0.1 V2 0 1 0.1
