Version 4
SHEET 1 880 808
WIRE 128 48 48 48
WIRE 128 96 48 96
WIRE 448 112 336 112
WIRE 128 144 48 144
WIRE 400 176 336 176
WIRE 96 192 48 192
WIRE 128 192 96 192
WIRE 272 304 272 256
WIRE 384 304 272 304
WIRE 224 320 224 256
WIRE 368 320 224 320
WIRE 176 336 176 256
WIRE 352 336 176 336
WIRE 400 352 400 176
WIRE 400 352 112 352
WIRE 128 432 32 432
WIRE 128 480 32 480
WIRE 448 496 336 496
WIRE 112 528 112 352
WIRE 128 528 112 528
WIRE 448 560 336 560
WIRE 96 576 96 192
WIRE 128 576 96 576
WIRE 176 656 176 640
WIRE 352 656 352 336
WIRE 352 656 176 656
WIRE 224 672 224 640
WIRE 368 672 368 320
WIRE 368 672 224 672
WIRE 272 688 272 640
WIRE 384 688 384 304
WIRE 384 688 272 688
WIRE 176 720 176 656
WIRE 224 720 224 672
WIRE 272 720 272 688
FLAG 48 48 A0
IOPIN 48 48 In
FLAG 48 96 B0
IOPIN 48 96 In
FLAG 48 144 CIN/BIN
IOPIN 48 144 In
FLAG 48 192 VDD
IOPIN 48 192 In
FLAG 448 560 COUT
IOPIN 448 560 Out
FLAG 448 112 OUT0
IOPIN 448 112 Out
FLAG 32 432 A1
IOPIN 32 432 In
FLAG 32 480 B1
IOPIN 32 480 In
FLAG 448 496 OUT1
IOPIN 448 496 Out
FLAG 176 720 S2
IOPIN 176 720 In
FLAG 224 720 S1
IOPIN 224 720 In
FLAG 272 720 S0
IOPIN 272 720 In
SYMBOL OneBitALU_CMOS 224 144 R0
SYMATTR InstName X1
SYMBOL OneBitALU_CMOS 224 528 R0
SYMATTR InstName X2
