Version 4
SHEET 1 880 4776
WIRE -48 -144 -80 -144
WIRE 96 -144 -48 -144
WIRE 32 -112 32 -240
WIRE 96 -112 32 -112
WIRE -48 -80 -48 -144
WIRE 96 -80 -48 -80
WIRE -48 -48 -48 -80
WIRE 96 -48 -48 -48
WIRE 32 -16 32 -112
WIRE 96 -16 32 -16
WIRE 32 16 32 -16
WIRE 96 16 32 16
WIRE 32 48 32 16
WIRE 96 48 32 48
WIRE 320 48 240 48
WIRE 32 80 32 48
WIRE 96 80 32 80
WIRE 320 80 240 80
WIRE 320 112 240 112
WIRE -48 144 -48 -48
WIRE 96 144 -48 144
WIRE 320 144 240 144
WIRE -48 176 -48 144
WIRE 96 176 -48 176
WIRE 320 176 240 176
WIRE -48 208 -48 176
WIRE 96 208 -48 208
WIRE 320 208 240 208
WIRE 32 240 32 80
WIRE 96 240 32 240
WIRE 320 240 240 240
WIRE 32 272 32 240
WIRE 96 272 32 272
WIRE 320 272 240 272
WIRE 32 304 32 272
WIRE 96 304 32 304
WIRE 32 336 32 304
WIRE 96 336 32 336
WIRE 320 336 240 336
WIRE 32 368 32 336
WIRE 96 368 32 368
WIRE 96 400 0 400
WIRE 96 432 0 432
WIRE 128 592 128 496
WIRE 160 592 160 496
WIRE 192 592 192 496
FLAG 0 400 CIN
IOPIN 0 400 In
FLAG 0 432 VDD
IOPIN 0 432 In
FLAG 320 48 OUT0
IOPIN 320 48 Out
FLAG 320 80 OUT1
IOPIN 320 80 Out
FLAG 320 112 OUT2
IOPIN 320 112 Out
FLAG 320 144 OUT3
IOPIN 320 144 Out
FLAG 320 176 OUT4
IOPIN 320 176 Out
FLAG 320 208 OUT5
IOPIN 320 208 Out
FLAG 320 240 OUT6
IOPIN 320 240 Out
FLAG 320 272 OUT7
IOPIN 320 272 Out
FLAG 320 336 COUT
IOPIN 320 336 Out
FLAG 192 592 S2
IOPIN 192 592 In
FLAG 160 592 S1
IOPIN 160 592 In
FLAG 128 592 S0
IOPIN 128 592 In
FLAG -528 160 0
FLAG -528 80 HIGH
IOPIN -528 80 In
FLAG -304 432 0
FLAG -528 432 0
FLAG -528 352 CIN
IOPIN -528 352 In
FLAG -304 352 VDD
IOPIN -304 352 In
FLAG -512 736 0
FLAG -64 736 0
FLAG 320 736 0
FLAG -512 656 S2
IOPIN -512 656 In
FLAG -64 656 S1
IOPIN -64 656 In
FLAG 320 656 S0
IOPIN 320 656 In
FLAG -80 -144 HIGH
IOPIN -80 -144 In
FLAG 32 -240 0
SYMBOL EightBITALU_V2 160 160 R0
SYMATTR InstName X1
SYMBOL voltage -528 64 R0
WINDOW 123 0 0 Left 0
WINDOW 39 0 0 Left 0
SYMATTR InstName V2
SYMATTR Value 1
SYMBOL voltage -528 336 R0
WINDOW 123 0 0 Left 0
WINDOW 39 0 0 Left 0
SYMATTR InstName V17
SYMATTR Value 0
SYMBOL voltage -304 336 R0
WINDOW 123 0 0 Left 0
WINDOW 39 0 0 Left 0
SYMATTR InstName V18
SYMATTR Value 1
SYMBOL voltage -512 640 R0
WINDOW 123 0 0 Left 0
WINDOW 39 0 0 Left 0
SYMATTR InstName V19
SYMATTR Value PULSE(0 1 0 5n 5n 20m 40m)
SYMBOL voltage -64 640 R0
WINDOW 123 0 0 Left 0
WINDOW 39 0 0 Left 0
SYMATTR InstName V20
SYMATTR Value PULSE(0 1 0 5n 5n 10m 20m)
SYMBOL voltage 320 640 R0
WINDOW 123 0 0 Left 0
WINDOW 39 0 0 Left 0
SYMATTR InstName V21
SYMATTR Value PULSE(0 1 0 5n 5n 5m 10m)
TEXT -768 760 Left 2 !.tran 40m
TEXT -776 800 Left 2 !.option noopiter
TEXT -216 880 Left 2 !.inc C:\\Users\\pdivy\\Desktop\\PTM 65nm PMOS.txt
TEXT -224 944 Left 2 !.inc C:\\Users\\pdivy\\Desktop\\PTM 65nm NMOS.txt
