Version 4
SHEET 1 880 1144
WIRE 112 -80 16 -80
WIRE 112 -48 16 -48
WIRE 112 -16 16 -16
WIRE 352 0 256 0
WIRE 112 16 16 16
WIRE 352 32 256 32
WIRE 112 64 16 64
WIRE 352 64 256 64
WIRE 112 96 16 96
WIRE 352 96 256 96
WIRE 112 128 16 128
WIRE 112 160 16 160
WIRE 112 208 16 208
WIRE 96 240 16 240
WIRE 112 240 96 240
WIRE 320 240 256 240
WIRE 208 416 208 320
WIRE 304 416 208 416
WIRE 176 432 176 320
WIRE 288 432 176 432
WIRE 144 448 144 320
WIRE 272 448 144 448
WIRE 320 464 320 240
WIRE 320 464 80 464
WIRE 112 544 32 544
WIRE 112 576 32 576
WIRE 112 608 32 608
WIRE 352 624 256 624
WIRE 112 640 32 640
WIRE 352 656 256 656
WIRE 112 688 32 688
WIRE 352 688 256 688
WIRE 112 720 32 720
WIRE 352 720 256 720
WIRE 112 752 32 752
WIRE 112 784 32 784
WIRE 80 832 80 464
WIRE 112 832 80 832
WIRE 96 864 96 240
WIRE 112 864 96 864
WIRE 352 864 256 864
WIRE 144 960 144 944
WIRE 272 960 272 448
WIRE 272 960 144 960
WIRE 176 976 176 944
WIRE 288 976 288 432
WIRE 288 976 176 976
WIRE 208 992 208 944
WIRE 304 992 304 416
WIRE 304 992 208 992
WIRE 144 1056 144 960
WIRE 176 1056 176 976
WIRE 208 1056 208 992
FLAG 16 -80 A0
IOPIN 16 -80 In
FLAG 16 -48 A1
IOPIN 16 -48 In
FLAG 16 -16 A2
IOPIN 16 -16 In
FLAG 16 16 A3
IOPIN 16 16 In
FLAG 16 64 B0
IOPIN 16 64 In
FLAG 16 96 B1
IOPIN 16 96 In
FLAG 16 128 B2
IOPIN 16 128 In
FLAG 16 160 B3
IOPIN 16 160 In
FLAG 16 208 CIN
IOPIN 16 208 In
FLAG 16 240 VDD
IOPIN 16 240 In
FLAG 32 544 A4
IOPIN 32 544 In
FLAG 32 576 A5
IOPIN 32 576 In
FLAG 32 608 A6
IOPIN 32 608 In
FLAG 32 640 A7
IOPIN 32 640 In
FLAG 32 688 B4
IOPIN 32 688 In
FLAG 32 720 B5
IOPIN 32 720 In
FLAG 32 752 B6
IOPIN 32 752 In
FLAG 32 784 B7
IOPIN 32 784 In
FLAG 208 1056 S2
IOPIN 208 1056 In
FLAG 176 1056 S1
IOPIN 176 1056 In
FLAG 144 1056 S0
IOPIN 144 1056 In
FLAG 352 0 OUT0
IOPIN 352 0 Out
FLAG 352 32 OUT1
IOPIN 352 32 Out
FLAG 352 64 OUT2
IOPIN 352 64 Out
FLAG 352 96 OUT3
IOPIN 352 96 Out
FLAG 352 624 OUT4
IOPIN 352 624 Out
FLAG 352 656 OUT5
IOPIN 352 656 Out
FLAG 352 688 OUT6
IOPIN 352 688 Out
FLAG 352 720 OUT7
IOPIN 352 720 Out
FLAG 352 864 COUT
IOPIN 352 864 Out
SYMBOL FourBitALU 176 112 R0
SYMATTR InstName X1
SYMBOL FourBitALU 176 736 R0
SYMATTR InstName X2
