Version 4
SHEET 1 880 744
WIRE 144 -192 48 -192
WIRE 144 -160 48 -160
WIRE 400 -160 288 -160
WIRE 144 -112 48 -112
WIRE 400 -112 288 -112
WIRE 144 -80 48 -80
WIRE 352 -64 288 -64
WIRE 144 -32 48 -32
WIRE 128 16 48 16
WIRE 144 16 128 16
WIRE 240 144 240 64
WIRE 336 144 240 144
WIRE 208 160 208 64
WIRE 320 160 208 160
WIRE 176 176 176 64
WIRE 304 176 176 176
WIRE 352 208 352 -64
WIRE 352 208 112 208
WIRE 144 288 48 288
WIRE 144 320 48 320
WIRE 400 320 288 320
WIRE 144 368 48 368
WIRE 400 368 288 368
WIRE 144 400 48 400
WIRE 400 416 288 416
WIRE 112 448 112 208
WIRE 144 448 112 448
WIRE 128 496 128 16
WIRE 144 496 128 496
WIRE 176 560 176 544
WIRE 304 560 304 176
WIRE 304 560 176 560
WIRE 208 576 208 544
WIRE 320 576 320 160
WIRE 320 576 208 576
WIRE 240 592 240 544
WIRE 336 592 336 144
WIRE 336 592 240 592
WIRE 176 656 176 560
WIRE 208 656 208 576
WIRE 240 656 240 592
FLAG 48 -192 A0
IOPIN 48 -192 In
FLAG 48 -160 A1
IOPIN 48 -160 In
FLAG 48 -112 B0
IOPIN 48 -112 In
FLAG 48 -80 B1
IOPIN 48 -80 In
FLAG 48 -32 CIN
IOPIN 48 -32 In
FLAG 400 -160 OUT0
IOPIN 400 -160 Out
FLAG 400 -112 OUT1
IOPIN 400 -112 Out
FLAG 48 288 A2
IOPIN 48 288 In
FLAG 48 320 A3
IOPIN 48 320 In
FLAG 48 368 B2
IOPIN 48 368 In
FLAG 48 400 B3
IOPIN 48 400 In
FLAG 400 320 OUT2
IOPIN 400 320 Out
FLAG 400 368 OUT3
IOPIN 400 368 Out
FLAG 176 656 S0
IOPIN 176 656 In
FLAG 208 656 S1
IOPIN 208 656 In
FLAG 240 656 S2
IOPIN 240 656 In
FLAG 400 416 COUT
IOPIN 400 416 Out
FLAG 48 16 VDD
IOPIN 48 16 In
SYMBOL TwoBitALU 208 -80 R0
SYMATTR InstName X1
SYMBOL TwoBitALU 208 400 R0
SYMATTR InstName X2
