Version 4
SHEET 1 1292 2720
WIRE 240 -48 192 -48
WIRE 240 -16 192 -16
WIRE 528 0 448 0
WIRE 240 16 192 16
WIRE 240 64 192 64
WIRE 528 64 448 64
WIRE 288 192 288 144
WIRE 336 192 336 144
WIRE 384 192 384 144
FLAG 192 -48 A
IOPIN 192 -48 In
FLAG 192 -16 B
IOPIN 192 -16 In
FLAG 192 16 CIN
IOPIN 192 16 In
FLAG 192 64 VDD
IOPIN 192 64 In
FLAG 288 192 S0
IOPIN 288 192 In
FLAG 336 192 S1
IOPIN 336 192 In
FLAG 384 192 S2
IOPIN 384 192 In
FLAG 528 64 COUT
IOPIN 528 64 Out
FLAG 528 0 OUT
IOPIN 528 0 Out
FLAG -688 -32 0
FLAG -688 144 0
FLAG -688 320 0
FLAG -544 704 0
FLAG -416 704 0
FLAG -288 704 0
FLAG -144 -32 0
FLAG -144 -112 VDD
IOPIN -144 -112 In
FLAG -688 240 S0
IOPIN -688 240 In
FLAG -688 64 S1
IOPIN -688 64 In
FLAG -688 -112 S2
IOPIN -688 -112 In
FLAG -544 624 A
IOPIN -544 624 In
FLAG -416 624 B
IOPIN -416 624 In
FLAG -288 624 CIN
IOPIN -288 624 In
SYMBOL voltage -688 -128 R0
WINDOW 123 0 0 Left 0
WINDOW 39 0 0 Left 0
SYMATTR InstName V1
SYMATTR Value PULSE(0 1 0 5n 5n 20m 40m)
SYMBOL voltage -688 48 R0
WINDOW 123 0 0 Left 0
WINDOW 39 0 0 Left 0
SYMATTR InstName V2
SYMATTR Value PULSE(0 1 0 5n 5n 10m 20m)
SYMBOL voltage -688 224 R0
WINDOW 123 0 0 Left 0
WINDOW 39 0 0 Left 0
SYMATTR InstName V3
SYMATTR Value PULSE(0 1 0 5n 5n 5m 10m)
SYMBOL voltage -144 -128 R0
WINDOW 123 0 0 Left 0
WINDOW 39 0 0 Left 0
SYMATTR InstName V4
SYMATTR Value 1
SYMBOL voltage -544 608 R0
WINDOW 123 0 0 Left 0
WINDOW 39 0 0 Left 0
SYMATTR InstName V5
SYMATTR Value 1
SYMBOL voltage -416 608 R0
WINDOW 123 0 0 Left 0
WINDOW 39 0 0 Left 0
SYMATTR InstName V6
SYMATTR Value 1
SYMBOL voltage -288 608 R0
WINDOW 123 0 0 Left 0
WINDOW 39 0 0 Left 0
SYMATTR InstName V7
SYMATTR Value 1
SYMBOL OneBitALU 336 32 R0
SYMATTR InstName X1
TEXT -752 728 Left 2 !.tran 40m
TEXT 80 464 Left 2 !.inc C:\\Users\\pdivy\\OneDrive\\Desktop\\PTM 65nm PMOS.txt
TEXT 80 504 Left 2 !.inc C:\\Users\\pdivy\\OneDrive\\Desktop\\PTM 65nm NMOS.txt
