Version 4
SHEET 1 1292 2720
WIRE 64 64 16 64
WIRE 64 96 16 96
WIRE 352 112 272 112
WIRE 64 128 16 128
WIRE 64 176 16 176
WIRE 352 176 272 176
WIRE 112 304 112 256
WIRE 160 304 160 256
WIRE 208 304 208 256
FLAG 16 64 A
IOPIN 16 64 In
FLAG 16 96 B
IOPIN 16 96 In
FLAG 16 128 CIN
IOPIN 16 128 In
FLAG 16 176 VDD
IOPIN 16 176 In
FLAG 112 304 S0
IOPIN 112 304 In
FLAG 160 304 S1
IOPIN 160 304 In
FLAG 208 304 S2
IOPIN 208 304 In
FLAG 352 176 COUT
IOPIN 352 176 Out
FLAG 352 112 OUT
IOPIN 352 112 Out
FLAG -688 -32 0
FLAG -688 144 0
FLAG -688 320 0
FLAG -544 704 0
FLAG -416 704 0
FLAG -288 704 0
FLAG -144 -32 0
FLAG -144 -112 VDD
IOPIN -144 -112 In
FLAG -688 240 S0
IOPIN -688 240 In
FLAG -688 64 S1
IOPIN -688 64 In
FLAG -688 -112 S2
IOPIN -688 -112 In
FLAG -544 624 A
IOPIN -544 624 In
FLAG -416 624 B
IOPIN -416 624 In
FLAG -288 624 CIN
IOPIN -288 624 In
SYMBOL OneBitALU 160 144 R0
SYMATTR InstName X1
SYMBOL voltage -688 -128 R0
WINDOW 123 0 0 Left 0
WINDOW 39 0 0 Left 0
SYMATTR InstName V1
SYMATTR Value PULSE(0 1 0 5n 5n 20m 40m)
SYMBOL voltage -688 48 R0
WINDOW 123 0 0 Left 0
WINDOW 39 0 0 Left 0
SYMATTR InstName V2
SYMATTR Value PULSE(0 1 0 5n 5n 10m 20m)
SYMBOL voltage -688 224 R0
WINDOW 123 0 0 Left 0
WINDOW 39 0 0 Left 0
SYMATTR InstName V3
SYMATTR Value PULSE(0 1 0 5n 5n 5m 10m)
SYMBOL voltage -144 -128 R0
WINDOW 123 0 0 Left 0
WINDOW 39 0 0 Left 0
SYMATTR InstName V4
SYMATTR Value 1
SYMBOL voltage -544 608 R0
WINDOW 123 0 0 Left 0
WINDOW 39 0 0 Left 0
SYMATTR InstName V5
SYMATTR Value 1
SYMBOL voltage -416 608 R0
WINDOW 123 0 0 Left 0
WINDOW 39 0 0 Left 0
SYMATTR InstName V6
SYMATTR Value 1
SYMBOL voltage -288 608 R0
WINDOW 123 0 0 Left 0
WINDOW 39 0 0 Left 0
SYMATTR InstName V7
SYMATTR Value 0
TEXT -752 728 Left 2 !.tran 40m
TEXT 80 464 Left 2 !.inc C:\\Users\\pdivy\\OneDrive\\Desktop\\PTM 65nm PMOS.txt
TEXT 80 504 Left 2 !.inc C:\\Users\\pdivy\\OneDrive\\Desktop\\PTM 65nm NMOS.txt
