Version 4
SHEET 1 880 680
WIRE 144 48 80 48
WIRE 144 80 80 80
WIRE 368 80 288 80
WIRE 144 128 80 128
WIRE 368 128 288 128
WIRE 144 160 80 160
WIRE 368 176 288 176
WIRE 144 208 80 208
WIRE 144 256 80 256
WIRE 176 352 176 304
WIRE 208 352 208 304
WIRE 240 352 240 304
FLAG 80 48 A0
IOPIN 80 48 In
FLAG 80 80 A1
IOPIN 80 80 In
FLAG 80 208 CIN
IOPIN 80 208 In
FLAG 80 256 VDD
IOPIN 80 256 In
FLAG 176 352 S0
IOPIN 176 352 In
FLAG 208 352 S1
IOPIN 208 352 In
FLAG 240 352 S2
IOPIN 240 352 In
FLAG 368 176 COUT
IOPIN 368 176 Out
FLAG 368 128 OUT1
IOPIN 368 128 Out
FLAG 368 80 OUT0
IOPIN 368 80 Out
FLAG 80 160 B1
IOPIN 80 160 In
FLAG 80 128 B0
IOPIN 80 128 In
FLAG -752 80 0
FLAG -624 80 0
FLAG -752 256 0
FLAG -624 256 0
FLAG -752 432 0
FLAG -624 432 0
FLAG -752 640 0
FLAG -576 640 0
FLAG -432 640 0
FLAG -752 560 S2
IOPIN -752 560 In
FLAG -576 560 S1
IOPIN -576 560 In
FLAG -432 560 S0
IOPIN -432 560 In
FLAG -624 352 VDD
IOPIN -624 352 In
FLAG -752 352 CIN
IOPIN -752 352 In
FLAG -624 0 A0
IOPIN -624 0 In
FLAG -752 0 A1
IOPIN -752 0 In
FLAG -624 176 B0
IOPIN -624 176 In
FLAG -752 176 B1
IOPIN -752 176 In
SYMBOL TwoBitALU 208 160 R0
SYMATTR InstName X1
SYMBOL voltage -752 -16 R0
WINDOW 123 0 0 Left 0
WINDOW 39 0 0 Left 0
SYMATTR InstName V1
SYMATTR Value 1
SYMBOL voltage -624 -16 R0
WINDOW 123 0 0 Left 0
WINDOW 39 0 0 Left 0
SYMATTR InstName V2
SYMATTR Value 0
SYMBOL voltage -752 160 R0
WINDOW 123 0 0 Left 0
WINDOW 39 0 0 Left 0
SYMATTR InstName V3
SYMATTR Value 1
SYMBOL voltage -624 160 R0
WINDOW 123 0 0 Left 0
WINDOW 39 0 0 Left 0
SYMATTR InstName V4
SYMATTR Value 0
SYMBOL voltage -752 336 R0
WINDOW 123 0 0 Left 0
WINDOW 39 0 0 Left 0
SYMATTR InstName V5
SYMATTR Value 0
SYMBOL voltage -624 336 R0
WINDOW 123 0 0 Left 0
WINDOW 39 0 0 Left 0
SYMATTR InstName V6
SYMATTR Value 1
SYMBOL voltage -752 544 R0
WINDOW 123 0 0 Left 0
WINDOW 39 0 0 Left 0
SYMATTR InstName V7
SYMATTR Value 1
SYMBOL voltage -576 544 R0
WINDOW 123 0 0 Left 0
WINDOW 39 0 0 Left 0
SYMATTR InstName V8
SYMATTR Value 1
SYMBOL voltage -432 544 R0
WINDOW 123 0 0 Left 0
WINDOW 39 0 0 Left 0
SYMATTR InstName V9
SYMATTR Value 0
TEXT -816 664 Left 2 !.tran 40m
